/*--------------------------------*- C++ -*----------------------------------*\
  =========                 |
  \\      /  F ield         | OpenFOAM: The Open Source CFD Toolbox
|  \\    /   O peration     | Version:  9                                     |
    \\  /    A nd           | Version:  dev
     \\/     M anipulation  |
\*---------------------------------------------------------------------------*/
FoamFile
{
    version     2.0;
    format      ascii;
    class       dictionary;
    location    "constant";
    object      transportProperties;
}
// * * * * * * * * * * * * * * * * * * * * * * * * * * * * * * * * * * * * * //

continuousPhaseName air;

rho.air         1.2;

transportModel  Newtonian;

nu              [0 2 -1 0 0 0 0] 1e-05;

rhoInf          [1 -3 0 0 0 0 0] 1.2;


// ************************************************************************* //
