Running 'blockMesh' in: /home/steven/foampilot/examples/muffler/cas_test
blockMesh executed successfully.
/*---------------------------------------------------------------------------*\
  =========                 |
  \\      /  F ield         | OpenFOAM: The Open Source CFD Toolbox
   \\    /   O peration     | Website:  https://openfoam.org
    \\  /    A nd           | Version:  13
     \\/     M anipulation  |
\*---------------------------------------------------------------------------*/
Build  : 13-cde978a97c93
Exec   : blockMesh
Date   : Dec 28 2025
Time   : 15:50:56
Host   : "MSI"
PID    : 25795
I/O    : uncollated
Case   : /home/steven/foampilot/examples/muffler/cas_test
nProcs : 1
sigFpe : Enabling floating point exception trapping (FOAM_SIGFPE).
fileModificationChecking : Monitoring run-time modified files using timeStampMaster (fileModificationSkew 10)
allowSystemOperations : Allowing user-supplied system call operations

// * * * * * * * * * * * * * * * * * * * * * * * * * * * * * * * * * * * * * //
Create time

Deleting polyMesh directory
    "/home/steven/foampilot/examples/muffler/cas_test/constant/polyMesh"
Reading "blockMeshDict"

Creating block mesh from
    "system/blockMeshDict"
Creating block edges
Creating block faces
Creating topology blocks
Creating topology patches

Creating block mesh topology

Basic statistics
    Number of internal faces : 160
    Number of boundary faces : 112
    Number of defined boundary faces : 112
    Number of undefined boundary faces : 0

Checking topology
Creating block offsets
Creating merge list .

Creating polyMesh from blockMesh
Creating patches
Creating cells
Creating points with scale 1
    Block 0 cell size :
        i : 0.0133333 .. 0.0133333 0.0129068 .. 0.0127322 0.0133333 .. 0.0133333 0.0129068 .. 0.0127322 
        j : 0.0133333 .. 0.0133333 0.0129068 .. 0.0127322 0.0133333 .. 0.0133333 0.0129068 .. 0.0127322 
        k : 0.0142857 .. 0.0142857
    Block 1 cell size :
        i : 0.0133333 .. 0.0133333 0.0127322 .. 0.0129068 0.0133333 .. 0.0133333 0.0127322 .. 0.0129068 
        j : 0.0107078 .. 0.0106719 0.0118125 .. 0.0116061 0.0107078 .. 0.0106719 0.0118125 .. 0.0116061 
        k : 0.0142857 .. 0.0142857
    Block 2 cell size :
        i : 0.0106719 .. 0.0107078 0.0116061 .. 0.0118125 0.0106719 .. 0.0107078 0.0116061 .. 0.0118125 
        j : 0.0106719 .. 0.0107078 0.0116061 .. 0.0118125 0.0106719 .. 0.0107078 0.0116061 .. 0.0118125 
        k : 0.0142857 .. 0.0142857
    Block 3 cell size :
        i : 0.0107078 .. 0.0106719 0.0118125 .. 0.0116061 0.0107078 .. 0.0106719 0.0118125 .. 0.0116061 
        j : 0.0133333 .. 0.0133333 0.0127322 .. 0.0129068 0.0133333 .. 0.0133333 0.0127322 .. 0.0129068 
        k : 0.0142857 .. 0.0142857
    Block 4 cell size :
        i : 0.01 0.0102714 0.01 0.0102714 
        j : 0.0107078 .. 0.0106719 0.0130526 .. 0.0130526 0.0107078 .. 0.0106719 0.0130526 .. 0.0130526 
        k : 0.0142857 .. 0.0142857
    Block 5 cell size :
        i : 0.00682866 0.00982328 0.00682866 0.00982328 
        j : 0.0106719 .. 0.0107078 0.0130526 0.0106719 .. 0.0107078 0.0130526 .. 0.0130526 
        k : 0.0142857 .. 0.0142857
    Block 6 cell size :
        i : 0.01 0.0102714 0.01 0.0102714 
        j : 0.0107078 .. 0.0106719 0.0130526 .. 0.0130526 0.0107078 .. 0.0106719 0.0130526 .. 0.0130526 
        k : 0.0142857 .. 0.0142857
    Block 7 cell size :
        i : 0.00682866 0.00982328 0.00682866 0.00982328 
        j : 0.0106719 .. 0.0107078 0.0130526 0.0106719 .. 0.0107078 0.0130526 .. 0.0130526 
        k : 0.0142857 .. 0.0142857
    Block 8 cell size :
        i : 0.01 0.0102714 0.01 0.0102714 
        j : 0.0107078 .. 0.0106719 0.0130526 .. 0.0130526 0.0107078 .. 0.0106719 0.0130526 .. 0.0130526 
        k : 0.0142857 .. 0.0142857
    Block 9 cell size :
        i : 0.00682866 0.00982328 0.00682866 0.00982328 
        j : 0.0106719 .. 0.0107078 0.0130526 0.0106719 .. 0.0107078 0.0130526 .. 0.0130526 
        k : 0.0142857 .. 0.0142857
    Block 10 cell size :
        i : 0.01 0.0102714 0.01 0.0102714 
        j : 0.0107078 .. 0.0106719 0.0130526 .. 0.0130526 0.0107078 .. 0.0106719 0.0130526 .. 0.0130526 
        k : 0.0142857 .. 0.0142857
    Block 11 cell size :
        i : 0.00682866 0.00982328 0.00682866 0.00982328 
        j : 0.0106719 .. 0.0107078 0.0130526 0.0106719 .. 0.0107078 0.0130526 .. 0.0130526 
        k : 0.0142857 .. 0.0142857
    Block 12 cell size :
        i : 0.0133333 .. 0.0133333 0.0129068 .. 0.0127322 0.0133333 .. 0.0133333 0.0129068 .. 0.0127322 
        j : 0.0133333 .. 0.0133333 0.0129068 .. 0.0127322 0.0133333 .. 0.0133333 0.0129068 .. 0.0127322 
        k : 0.0142857 .. 0.0142857
    Block 13 cell size :
        i : 0.0133333 .. 0.0133333 0.0127322 .. 0.0129068 0.0133333 .. 0.0133333 0.0127322 .. 0.0129068 
        j : 0.0107078 .. 0.0106719 0.0118125 .. 0.0116061 0.0107078 .. 0.0106719 0.0118125 .. 0.0116061 
        k : 0.0142857 .. 0.0142857
    Block 14 cell size :
        i : 0.0106719 .. 0.0107078 0.0116061 .. 0.0118125 0.0106719 .. 0.0107078 0.0116061 .. 0.0118125 
        j : 0.0106719 .. 0.0107078 0.0116061 .. 0.0118125 0.0106719 .. 0.0107078 0.0116061 .. 0.0118125 
        k : 0.0142857 .. 0.0142857
    Block 15 cell size :
        i : 0.0107078 .. 0.0106719 0.0118125 .. 0.0116061 0.0107078 .. 0.0106719 0.0118125 .. 0.0116061 
        j : 0.0133333 .. 0.0133333 0.0127322 .. 0.0129068 0.0133333 .. 0.0133333 0.0127322 .. 0.0129068 
        k : 0.0142857 .. 0.0142857
    Block 16 cell size :
        i : 0.01 0.0102714 0.01 0.0102714 
        j : 0.0107078 .. 0.0106719 0.0130526 .. 0.0130526 0.0107078 .. 0.0106719 0.0130526 .. 0.0130526 
        k : 0.0142857 .. 0.0142857
    Block 17 cell size :
        i : 0.00682866 0.00982328 0.00682866 0.00982328 
        j : 0.0106719 .. 0.0107078 0.0130526 0.0106719 .. 0.0107078 0.0130526 .. 0.0130526 
        k : 0.0142857 .. 0.0142857
    Block 18 cell size :
        i : 0.01 0.0102714 0.01 0.0102714 
        j : 0.0107078 .. 0.0106719 0.0130526 .. 0.0130526 0.0107078 .. 0.0106719 0.0130526 .. 0.0130526 
        k : 0.0142857 .. 0.0142857
    Block 19 cell size :
        i : 0.00682866 0.00982328 0.00682866 0.00982328 
        j : 0.0106719 .. 0.0107078 0.0130526 0.0106719 .. 0.0107078 0.0130526 .. 0.0130526 
        k : 0.0142857 .. 0.0142857
    Block 20 cell size :
        i : 0.01 0.0102714 0.01 0.0102714 
        j : 0.0107078 .. 0.0106719 0.0130526 .. 0.0130526 0.0107078 .. 0.0106719 0.0130526 .. 0.0130526 
        k : 0.0142857 .. 0.0142857
    Block 21 cell size :
        i : 0.00682866 0.00982328 0.00682866 0.00982328 
        j : 0.0106719 .. 0.0107078 0.0130526 0.0106719 .. 0.0107078 0.0130526 .. 0.0130526 
        k : 0.0142857 .. 0.0142857
    Block 22 cell size :
        i : 0.01 0.0102714 0.01 0.0102714 
        j : 0.0107078 .. 0.0106719 0.0130526 .. 0.0130526 0.0107078 .. 0.0106719 0.0130526 .. 0.0130526 
        k : 0.0142857 .. 0.0142857
    Block 23 cell size :
        i : 0.00682866 0.00982328 0.00682866 0.00982328 
        j : 0.0106719 .. 0.0107078 0.0130526 0.0106719 .. 0.0107078 0.0130526 .. 0.0130526 
        k : 0.0142857 .. 0.0142857
    Block 24 cell size :
        i : 0.01
        j : 0.0130526 .. 0.0130526 0.0156631 .. 0.0156631 0.0130526 .. 0.0130526 0.0156631 .. 0.0156631 
        k : 0.0142857 .. 0.0142857
    Block 25 cell size :
        i : 0.01 .. 0.01
        j : 0.0130526 0.0156631 .. 0.0156631 0.0130526 .. 0.0130526 0.0156631 .. 0.0156631 
        k : 0.0142857 .. 0.0142857
    Block 26 cell size :
        i : 0.01
        j : 0.0130526 .. 0.0130526 0.0156631 .. 0.0156631 0.0130526 .. 0.0130526 0.0156631 .. 0.0156631 
        k : 0.0142857 .. 0.0142857
    Block 27 cell size :
        i : 0.01 .. 0.01
        j : 0.0130526 0.0156631 .. 0.0156631 0.0130526 .. 0.0130526 0.0156631 .. 0.0156631 
        k : 0.0142857 .. 0.0142857
    Block 28 cell size :
        i : 0.01
        j : 0.0130526 .. 0.0130526 0.0156631 .. 0.0156631 0.0130526 .. 0.0130526 0.0156631 .. 0.0156631 
        k : 0.0142857 .. 0.0142857
    Block 29 cell size :
        i : 0.01 .. 0.01
        j : 0.0130526 0.0156631 .. 0.0156631 0.0130526 .. 0.0130526 0.0156631 .. 0.0156631 
        k : 0.0142857 .. 0.0142857
    Block 30 cell size :
        i : 0.01
        j : 0.0130526 .. 0.0130526 0.0156631 .. 0.0156631 0.0130526 .. 0.0130526 0.0156631 .. 0.0156631 
        k : 0.0142857 .. 0.0142857
    Block 31 cell size :
        i : 0.01 .. 0.01
        j : 0.0130526 0.0156631 .. 0.0156631 0.0130526 .. 0.0130526 0.0156631 .. 0.0156631 
        k : 0.0142857 .. 0.0142857
    Block 32 cell size :
        i : 0.01
        j : 0.0130526 .. 0.0130526 0.0156631 .. 0.0156631 0.0130526 .. 0.0130526 0.0156631 .. 0.0156631 
        k : 0.0142857 .. 0.0142857
    Block 33 cell size :
        i : 0.01 .. 0.01
        j : 0.0130526 0.0156631 .. 0.0156631 0.0130526 .. 0.0130526 0.0156631 .. 0.0156631 
        k : 0.0142857 .. 0.0142857
    Block 34 cell size :
        i : 0.01
        j : 0.0130526 .. 0.0130526 0.0156631 .. 0.0156631 0.0130526 .. 0.0130526 0.0156631 .. 0.0156631 
        k : 0.0142857 .. 0.0142857
    Block 35 cell size :
        i : 0.01 .. 0.01
        j : 0.0130526 0.0156631 .. 0.0156631 0.0130526 .. 0.0130526 0.0156631 .. 0.0156631 
        k : 0.0142857 .. 0.0142857
    Block 36 cell size :
        i : 0.01
        j : 0.0130526 .. 0.0130526 0.0156631 .. 0.0156631 0.0130526 .. 0.0130526 0.0156631 .. 0.0156631 
        k : 0.0142857 .. 0.0142857
    Block 37 cell size :
        i : 0.01 .. 0.01
        j : 0.0130526 0.0156631 .. 0.0156631 0.0130526 .. 0.0130526 0.0156631 .. 0.0156631 
        k : 0.0142857 .. 0.0142857
    Block 38 cell size :
        i : 0.01
        j : 0.0130526 .. 0.0130526 0.0156631 .. 0.0156631 0.0130526 .. 0.0130526 0.0156631 .. 0.0156631 
        k : 0.0142857 .. 0.0142857
    Block 39 cell size :
        i : 0.01 .. 0.01
        j : 0.0130526 0.0156631 .. 0.0156631 0.0130526 .. 0.0130526 0.0156631 .. 0.0156631 
        k : 0.0142857 .. 0.0142857
    Block 40 cell size :
        i : 0.01
        j : 0.0130526 .. 0.0130526 0.0156631 .. 0.0156631 0.0130526 .. 0.0130526 0.0156631 .. 0.0156631 
        k : 0.0142857
    Block 41 cell size :
        i : 0.01 .. 0.01
        j : 0.0130526 0.0156631 .. 0.0156631 0.0130526 .. 0.0130526 0.0156631 .. 0.0156631 
        k : 0.0142857
    Block 42 cell size :
        i : 0.01
        j : 0.0130526 .. 0.0130526 0.0156631 .. 0.0156631 0.0130526 .. 0.0130526 0.0156631 .. 0.0156631 
        k : 0.0142857
    Block 43 cell size :
        i : 0.01 .. 0.01
        j : 0.0130526 0.0156631 .. 0.0156631 0.0130526 .. 0.0130526 0.0156631 .. 0.0156631 
        k : 0.0142857
    Block 44 cell size :
        i : 0.01
        j : 0.0130526 .. 0.0130526 0.0156631 .. 0.0156631 0.0130526 .. 0.0130526 0.0156631 .. 0.0156631 
        k : 0.0142857
    Block 45 cell size :
        i : 0.01 .. 0.01
        j : 0.0130526 0.0156631 .. 0.0156631 0.0130526 .. 0.0130526 0.0156631 .. 0.0156631 
        k : 0.0142857
    Block 46 cell size :
        i : 0.01
        j : 0.0130526 .. 0.0130526 0.0156631 .. 0.0156631 0.0130526 .. 0.0130526 0.0156631 .. 0.0156631 
        k : 0.0142857
    Block 47 cell size :
        i : 0.01 .. 0.01
        j : 0.0130526 0.0156631 .. 0.0156631 0.0130526 .. 0.0130526 0.0156631 .. 0.0156631 
        k : 0.0142857
    Block 48 cell size :
        i : 0.0133333 .. 0.0133333 0.0129068 .. 0.0127322 0.0133333 .. 0.0133333 0.0129068 .. 0.0127322 
        j : 0.0133333 .. 0.0133333 0.0129068 .. 0.0127322 0.0133333 .. 0.0133333 0.0129068 .. 0.0127322 
        k : 0.0142857
    Block 49 cell size :
        i : 0.0133333 .. 0.0133333 0.0127322 .. 0.0129068 0.0133333 .. 0.0133333 0.0127322 .. 0.0129068 
        j : 0.0107078 .. 0.0106719 0.0118125 .. 0.0116061 0.0107078 .. 0.0106719 0.0118125 .. 0.0116061 
        k : 0.0142857
    Block 50 cell size :
        i : 0.0106719 .. 0.0107078 0.0116061 .. 0.0118125 0.0106719 .. 0.0107078 0.0116061 .. 0.0118125 
        j : 0.0106719 .. 0.0107078 0.0116061 .. 0.0118125 0.0106719 .. 0.0107078 0.0116061 .. 0.0118125 
        k : 0.0142857
    Block 51 cell size :
        i : 0.0107078 .. 0.0106719 0.0118125 .. 0.0116061 0.0107078 .. 0.0106719 0.0118125 .. 0.0116061 
        j : 0.0133333 .. 0.0133333 0.0127322 .. 0.0129068 0.0133333 .. 0.0133333 0.0127322 .. 0.0129068 
        k : 0.0142857
    Block 52 cell size :
        i : 0.01 0.0102714 0.01 0.0102714 
        j : 0.0107078 .. 0.0106719 0.0130526 .. 0.0130526 0.0107078 .. 0.0106719 0.0130526 .. 0.0130526 
        k : 0.0142857
    Block 53 cell size :
        i : 0.00682866 0.00982328 0.00682866 0.00982328 
        j : 0.0106719 .. 0.0107078 0.0130526 0.0106719 .. 0.0107078 0.0130526 .. 0.0130526 
        k : 0.0142857
    Block 54 cell size :
        i : 0.01 0.0102714 0.01 0.0102714 
        j : 0.0107078 .. 0.0106719 0.0130526 .. 0.0130526 0.0107078 .. 0.0106719 0.0130526 .. 0.0130526 
        k : 0.0142857
    Block 55 cell size :
        i : 0.00682866 0.00982328 0.00682866 0.00982328 
        j : 0.0106719 .. 0.0107078 0.0130526 0.0106719 .. 0.0107078 0.0130526 .. 0.0130526 
        k : 0.0142857
    Block 56 cell size :
        i : 0.01 0.0102714 0.01 0.0102714 
        j : 0.0107078 .. 0.0106719 0.0130526 .. 0.0130526 0.0107078 .. 0.0106719 0.0130526 .. 0.0130526 
        k : 0.0142857
    Block 57 cell size :
        i : 0.00682866 0.00982328 0.00682866 0.00982328 
        j : 0.0106719 .. 0.0107078 0.0130526 0.0106719 .. 0.0107078 0.0130526 .. 0.0130526 
        k : 0.0142857
    Block 58 cell size :
        i : 0.01 0.0102714 0.01 0.0102714 
        j : 0.0107078 .. 0.0106719 0.0130526 .. 0.0130526 0.0107078 .. 0.0106719 0.0130526 .. 0.0130526 
        k : 0.0142857
    Block 59 cell size :
        i : 0.00682866 0.00982328 0.00682866 0.00982328 
        j : 0.0106719 .. 0.0107078 0.0130526 0.0106719 .. 0.0107078 0.0130526 .. 0.0130526 
        k : 0.0142857
    Block 60 cell size :
        i : 0.0133333 .. 0.0133333 0.0129068 .. 0.0127322 0.0133333 .. 0.0133333 0.0128667 .. 0.0127067 
        j : 0.0133333 .. 0.0133333 0.0129068 .. 0.0127322 0.0133333 .. 0.0133333 0.0129082 .. 0.0127314 
        k : 0.0167475 .. 0.0167475 0.0153519 .. 0.0153519 0.0167475 .. 0.0167475 0.0154188 .. 0.0154188 
    Block 61 cell size :
        i : 0.0133333 .. 0.0133333 0.0127322 .. 0.0129068 0.0133333 .. 0.0133333 0.0127067 .. 0.0128667 
        j : 0.0107078 .. 0.0106719 0.0118125 .. 0.0116061 0.0107233 .. 0.0106522 0.0118188 .. 0.0115996 
        k : 0.0209344 .. 0.0209344 0.0195388 .. 0.0195388 0.0207063 .. 0.0207063 0.0193931 .. 0.0193931 
    Block 62 cell size :
        i : 0.0106719 .. 0.0107078 0.0116061 .. 0.0118125 0.0106883 .. 0.0106825 0.0116003 .. 0.0117778 
        j : 0.0106719 .. 0.0107078 0.0116061 .. 0.0118125 0.0106522 .. 0.0107233 0.0115996 .. 0.0118188 
        k : 0.0199428 .. 0.0199428 0.0188969 .. 0.0188969 0.020331 .. 0.020331 0.0191493 .. 0.0191493 
    Block 63 cell size :
        i : 0.0107078 .. 0.0106719 0.0118125 .. 0.0116061 0.0106825 .. 0.0106883 0.0117778 .. 0.0116003 
        j : 0.0133333 .. 0.0133333 0.0127322 .. 0.0129068 0.0133333 .. 0.0133333 0.0127314 .. 0.0129082 
        k : 0.0167475 .. 0.0167475 0.0156546 .. 0.0156546 0.0167475 .. 0.0167475 0.0155345 .. 0.0155345 
    Block 64 cell size :
        i : 0.01 0.0102714 0.01 0.0101632 
        j : 0.0107078 .. 0.0106719 0.0130526 .. 0.0130526 0.0107233 .. 0.0106522 0.0130815 .. 0.012933 
        k : 0.0125606 .. 0.0125606 0.0115139 .. 0.0115139 0.0127892 .. 0.0127892 0.0118039 .. 0.0118039 
    Block 65 cell size :
        i : 0.00682866 0.00982328 0.00682866 0.00979019 
        j : 0.0106719 .. 0.0107078 0.0130526 0.0106883 .. 0.0106825 0.0131263 .. 0.0129784 
        k : 0.0135522 .. 0.0135522 0.0130468 .. 0.0130468 0.0145982 .. 0.0145982 0.0141805 .. 0.0141805 
    Block 66 cell size :
        i : 0.01 0.0102714 0.01 0.0102602 
        j : 0.0107078 .. 0.0106719 0.0130526 .. 0.0130526 0.0106825 .. 0.0106883 0.0129784 .. 0.0131263 
        k : 0.0167475 .. 0.0167475 0.0167475 .. 0.0167475 0.0178404 .. 0.0178404 0.0180622 .. 0.0180622 
    Block 67 cell size :
        i : 0.00682866 0.00982328 0.00682866 0.00969361 
        j : 0.0106719 .. 0.0107078 0.0130526 .. 0.0130526 0.0106522 .. 0.0107233 0.012933 .. 0.0130815 
        k : 0.0199428 .. 0.0199428 0.0204482 .. 0.0204482 0.020331 .. 0.020331 0.0211748 .. 0.0211748 
    Block 68 cell size :
        i : 0.01 0.0102714 0.01 0.0101632 
        j : 0.0107078 .. 0.0106719 0.0130526 .. 0.0130526 0.0107233 .. 0.0106522 0.0130815 .. 0.012933 
        k : 0.0209344 .. 0.0209344 0.0219811 .. 0.0219811 0.0207063 .. 0.0207063 0.0216937 .. 0.0216937 
    Block 69 cell size :
        i : 0.00682866 0.00982328 0.00682866 0.00979019 
        j : 0.0106719 .. 0.0107078 0.0130526 .. 0.0130526 0.0106883 .. 0.0106825 0.0131263 .. 0.0129784 
        k : 0.0199428 .. 0.0199428 0.0204482 .. 0.0204482 0.0188969 .. 0.0188969 0.019315 .. 0.019315 
    Block 70 cell size :
        i : 0.01 0.0102714 0.01 0.0102602 
        j : 0.0107078 .. 0.0106719 0.0130526 .. 0.0130526 0.0106825 .. 0.0106883 0.0129784 .. 0.0131263 
        k : 0.0167475 .. 0.0167475 0.0167475 .. 0.0167475 0.0156546 .. 0.0156546 0.0154331 .. 0.0154331 
    Block 71 cell size :
        i : 0.00682866 0.00982328 0.00682866 0.00969361 
        j : 0.0106719 .. 0.0107078 0.0130526 0.0106522 .. 0.0107233 0.012933 .. 0.0130815 
        k : 0.0135522 .. 0.0135522 0.0130468 .. 0.0130468 0.0131642 .. 0.0131642 0.0123226 .. 0.0123226 

Writing polyMesh
----------------
Mesh Information
----------------
  boundingBox: (0 -0.08 -0.08) (0.81 0.16 0.08)
  nPoints: 5524
  nCells: 4512
  nFaces: 14496
  nInternalFaces: 12576
----------------
Patches
----------------
  patch 0 (start: 12576 size: 60) name: inlet
  patch 1 (start: 12636 size: 60) name: outlet
  patch 2 (start: 12696 size: 1800) name: walls

End



