/*---------------------------------------------------------------------------*\
  =========                 |
  \\      /  F ield         | OpenFOAM: The Open Source CFD Toolbox
   \\    /   O peration     | Website:  https://openfoam.org
    \\  /    A nd           | Version:  13
     \\/     M anipulation  |
\*---------------------------------------------------------------------------*/
Build  : 13-cde978a97c93
Exec   : foamRun -solver incompressibleFluid
Date   : Dec 28 2025
Time   : 15:50:56
Host   : "MSI"
PID    : 25796
I/O    : uncollated
Case   : /home/steven/foampilot/examples/muffler/cas_test
nProcs : 1
sigFpe : Enabling floating point exception trapping (FOAM_SIGFPE).
fileModificationChecking : Monitoring run-time modified files using timeStampMaster (fileModificationSkew 10)
allowSystemOperations : Allowing user-supplied system call operations

// * * * * * * * * * * * * * * * * * * * * * * * * * * * * * * * * * * * * * //
Create time

Create mesh for time = 0

Selecting solver incompressibleFluid
Selecting viscosity model Newtonian
Selecting turbulence model type RAS
    Selecting RAS turbulence model kEpsilon
No MRF models present


SIMPLE: Convergence criteria found
        p: tolerance 0.01
        U: tolerance 0.0001
        k: tolerance 0.0001
        epsilon: tolerance 0.0001


SIMPLE: Operating solver in steady-state mode with 1 outer corrector
SIMPLE: Operating solver in SIMPLE mode



Starting time loop

Time = 1s

smoothSolver:  Solving for Ux, Initial residual = 1, Final residual = 0.0366614, No Iterations 2
smoothSolver:  Solving for Uy, Initial residual = 1, Final residual = 0.0348322, No Iterations 2
smoothSolver:  Solving for Uz, Initial residual = 1, Final residual = 0.0329989, No Iterations 2
GAMG:  Solving for p, Initial residual = 1, Final residual = 0.0446502, No Iterations 6
time step continuity errors : sum local = 0.366965, global = -0.0996708, cumulative = -0.0996708
smoothSolver:  Solving for epsilon, Initial residual = 0.12136, Final residual = 0.00345543, No Iterations 2
smoothSolver:  Solving for k, Initial residual = 1, Final residual = 0.087798, No Iterations 2
ExecutionTime = 0.085966 s  ClockTime = 0 s

Time = 2s

smoothSolver:  Solving for Ux, Initial residual = 0.936719, Final residual = 0.0479769, No Iterations 2
smoothSolver:  Solving for Uy, Initial residual = 0.746927, Final residual = 0.0340419, No Iterations 2
smoothSolver:  Solving for Uz, Initial residual = 0.686345, Final residual = 0.0461576, No Iterations 2
GAMG:  Solving for p, Initial residual = 0.241145, Final residual = 0.0236308, No Iterations 2
time step continuity errors : sum local = 55.4724, global = 17.3983, cumulative = 17.2987
smoothSolver:  Solving for epsilon, Initial residual = 0.535898, Final residual = 0.016025, No Iterations 2
smoothSolver:  Solving for k, Initial residual = 0.900056, Final residual = 0.051364, No Iterations 2
ExecutionTime = 0.091353 s  ClockTime = 0 s

Time = 3s

smoothSolver:  Solving for Ux, Initial residual = 0.294624, Final residual = 0.0174362, No Iterations 2
smoothSolver:  Solving for Uy, Initial residual = 0.128813, Final residual = 0.00721783, No Iterations 2
smoothSolver:  Solving for Uz, Initial residual = 0.182207, Final residual = 0.00730225, No Iterations 2
GAMG:  Solving for p, Initial residual = 0.398818, Final residual = 0.0236953, No Iterations 2
time step continuity errors : sum local = 11.1553, global = 6.19421, cumulative = 23.4929
smoothSolver:  Solving for epsilon, Initial residual = 0.17849, Final residual = 0.00958776, No Iterations 2
smoothSolver:  Solving for k, Initial residual = 0.343189, Final residual = 0.0249981, No Iterations 2
ExecutionTime = 0.095731 s  ClockTime = 0 s

Time = 4s

smoothSolver:  Solving for Ux, Initial residual = 0.801115, Final residual = 0.0666532, No Iterations 2
smoothSolver:  Solving for Uy, Initial residual = 0.681021, Final residual = 0.0520909, No Iterations 2
smoothSolver:  Solving for Uz, Initial residual = 0.546444, Final residual = 0.0343643, No Iterations 2
GAMG:  Solving for p, Initial residual = 0.40512, Final residual = 0.0319009, No Iterations 2
time step continuity errors : sum local = 36.4267, global = -0.51165, cumulative = 22.9812
smoothSolver:  Solving for epsilon, Initial residual = 0.166054, Final residual = 0.00889532, No Iterations 2
smoothSolver:  Solving for k, Initial residual = 0.39438, Final residual = 0.0267697, No Iterations 2
ExecutionTime = 0.101343 s  ClockTime = 0 s

Time = 5s

smoothSolver:  Solving for Ux, Initial residual = 0.463139, Final residual = 0.0397125, No Iterations 2
smoothSolver:  Solving for Uy, Initial residual = 0.514754, Final residual = 0.0390261, No Iterations 2
smoothSolver:  Solving for Uz, Initial residual = 0.512304, Final residual = 0.0194217, No Iterations 2
GAMG:  Solving for p, Initial residual = 0.385268, Final residual = 0.0138954, No Iterations 2
time step continuity errors : sum local = 10.2027, global = 0.248207, cumulative = 23.2294
smoothSolver:  Solving for epsilon, Initial residual = 0.0814681, Final residual = 0.00395591, No Iterations 2
smoothSolver:  Solving for k, Initial residual = 0.232573, Final residual = 0.0065485, No Iterations 2
ExecutionTime = 0.106978 s  ClockTime = 0 s

Time = 6s

smoothSolver:  Solving for Ux, Initial residual = 0.604396, Final residual = 0.0485806, No Iterations 2
smoothSolver:  Solving for Uy, Initial residual = 0.299561, Final residual = 0.0202077, No Iterations 2
smoothSolver:  Solving for Uz, Initial residual = 0.473894, Final residual = 0.0250377, No Iterations 2
GAMG:  Solving for p, Initial residual = 0.39406, Final residual = 0.0133206, No Iterations 3
time step continuity errors : sum local = 8.95711, global = 2.01882, cumulative = 25.2483
smoothSolver:  Solving for epsilon, Initial residual = 0.0494939, Final residual = 0.00232737, No Iterations 2
smoothSolver:  Solving for k, Initial residual = 0.15504, Final residual = 0.00551471, No Iterations 2
ExecutionTime = 0.111877 s  ClockTime = 0 s

Time = 7s

smoothSolver:  Solving for Ux, Initial residual = 0.600633, Final residual = 0.0426082, No Iterations 2
smoothSolver:  Solving for Uy, Initial residual = 0.322612, Final residual = 0.0198059, No Iterations 2
smoothSolver:  Solving for Uz, Initial residual = 0.356057, Final residual = 0.0147291, No Iterations 2
GAMG:  Solving for p, Initial residual = 0.285626, Final residual = 0.0235408, No Iterations 2
time step continuity errors : sum local = 13.4302, global = 2.95966, cumulative = 28.2079
smoothSolver:  Solving for epsilon, Initial residual = 0.0455947, Final residual = 0.00145173, No Iterations 2
smoothSolver:  Solving for k, Initial residual = 0.132357, Final residual = 0.00340689, No Iterations 2
ExecutionTime = 0.116608 s  ClockTime = 0 s

Time = 8s

smoothSolver:  Solving for Ux, Initial residual = 0.447613, Final residual = 0.0283345, No Iterations 2
smoothSolver:  Solving for Uy, Initial residual = 0.251092, Final residual = 0.0119258, No Iterations 2
smoothSolver:  Solving for Uz, Initial residual = 0.508543, Final residual = 0.0255771, No Iterations 2
GAMG:  Solving for p, Initial residual = 0.754433, Final residual = 0.0684445, No Iterations 2
time step continuity errors : sum local = 12.3959, global = 2.2645, cumulative = 30.4724
smoothSolver:  Solving for epsilon, Initial residual = 0.0394164, Final residual = 0.00374659, No Iterations 1
smoothSolver:  Solving for k, Initial residual = 0.103262, Final residual = 0.00333155, No Iterations 2
ExecutionTime = 0.120827 s  ClockTime = 0 s

Time = 9s

smoothSolver:  Solving for Ux, Initial residual = 0.478208, Final residual = 0.0325072, No Iterations 2
smoothSolver:  Solving for Uy, Initial residual = 0.197243, Final residual = 0.0110778, No Iterations 2
smoothSolver:  Solving for Uz, Initial residual = 0.442726, Final residual = 0.0199394, No Iterations 2
GAMG:  Solving for p, Initial residual = 0.409837, Final residual = 0.0222697, No Iterations 2
time step continuity errors : sum local = 5.66587, global = 0.0482692, cumulative = 30.5207
smoothSolver:  Solving for epsilon, Initial residual = 0.0582958, Final residual = 0.000891441, No Iterations 2
smoothSolver:  Solving for k, Initial residual = 0.0953798, Final residual = 0.00344777, No Iterations 2
ExecutionTime = 0.127609 s  ClockTime = 0 s

Time = 10s

smoothSolver:  Solving for Ux, Initial residual = 0.235747, Final residual = 0.0111872, No Iterations 2
smoothSolver:  Solving for Uy, Initial residual = 0.119961, Final residual = 0.00372967, No Iterations 2
smoothSolver:  Solving for Uz, Initial residual = 0.283208, Final residual = 0.010452, No Iterations 2
GAMG:  Solving for p, Initial residual = 0.602889, Final residual = 0.0486322, No Iterations 2
time step continuity errors : sum local = 4.76608, global = -0.949704, cumulative = 29.571
smoothSolver:  Solving for epsilon, Initial residual = 0.0532177, Final residual = 0.000963316, No Iterations 2
smoothSolver:  Solving for k, Initial residual = 0.0866344, Final residual = 0.00336835, No Iterations 2
ExecutionTime = 0.133517 s  ClockTime = 0 s

Time = 11s

smoothSolver:  Solving for Ux, Initial residual = 0.252413, Final residual = 0.0141248, No Iterations 2
smoothSolver:  Solving for Uy, Initial residual = 0.117811, Final residual = 0.00527681, No Iterations 2
smoothSolver:  Solving for Uz, Initial residual = 0.235689, Final residual = 0.00858492, No Iterations 2
GAMG:  Solving for p, Initial residual = 0.3293, Final residual = 0.0193772, No Iterations 2
time step continuity errors : sum local = 2.79621, global = -1.13215, cumulative = 28.4388
smoothSolver:  Solving for epsilon, Initial residual = 0.0510564, Final residual = 0.00104952, No Iterations 2
smoothSolver:  Solving for k, Initial residual = 0.079906, Final residual = 0.00342262, No Iterations 2
ExecutionTime = 0.137886 s  ClockTime = 0 s

Time = 12s

smoothSolver:  Solving for Ux, Initial residual = 0.184249, Final residual = 0.00879598, No Iterations 2
smoothSolver:  Solving for Uy, Initial residual = 0.0884882, Final residual = 0.00288145, No Iterations 2
smoothSolver:  Solving for Uz, Initial residual = 0.211149, Final residual = 0.00880891, No Iterations 2
GAMG:  Solving for p, Initial residual = 0.466254, Final residual = 0.0242245, No Iterations 2
time step continuity errors : sum local = 2.01317, global = -0.37094, cumulative = 28.0679
smoothSolver:  Solving for epsilon, Initial residual = 0.0527495, Final residual = 0.00116359, No Iterations 2
smoothSolver:  Solving for k, Initial residual = 0.0741612, Final residual = 0.00355366, No Iterations 2
ExecutionTime = 0.142157 s  ClockTime = 0 s

Time = 13s

smoothSolver:  Solving for Ux, Initial residual = 0.146314, Final residual = 0.00726838, No Iterations 2
smoothSolver:  Solving for Uy, Initial residual = 0.0723422, Final residual = 0.00261221, No Iterations 2
smoothSolver:  Solving for Uz, Initial residual = 0.153567, Final residual = 0.00517378, No Iterations 2
GAMG:  Solving for p, Initial residual = 0.263836, Final residual = 0.0140916, No Iterations 2
time step continuity errors : sum local = 1.5621, global = 0.526736, cumulative = 28.5946
smoothSolver:  Solving for epsilon, Initial residual = 0.0463743, Final residual = 0.00109296, No Iterations 2
smoothSolver:  Solving for k, Initial residual = 0.068054, Final residual = 0.00332024, No Iterations 2
ExecutionTime = 0.146735 s  ClockTime = 0 s

Time = 14s

smoothSolver:  Solving for Ux, Initial residual = 0.083291, Final residual = 0.00314431, No Iterations 2
smoothSolver:  Solving for Uy, Initial residual = 0.049858, Final residual = 0.00157578, No Iterations 2
smoothSolver:  Solving for Uz, Initial residual = 0.13675, Final residual = 0.0043655, No Iterations 2
GAMG:  Solving for p, Initial residual = 0.299424, Final residual = 0.00938962, No Iterations 2
time step continuity errors : sum local = 0.71015, global = 0.0465044, cumulative = 28.6411
smoothSolver:  Solving for epsilon, Initial residual = 0.0395344, Final residual = 0.00102669, No Iterations 2
smoothSolver:  Solving for k, Initial residual = 0.065334, Final residual = 0.00330419, No Iterations 2
ExecutionTime = 0.151148 s  ClockTime = 0 s

Time = 15s

smoothSolver:  Solving for Ux, Initial residual = 0.0777836, Final residual = 0.00283886, No Iterations 2
smoothSolver:  Solving for Uy, Initial residual = 0.04491, Final residual = 0.00135116, No Iterations 2
smoothSolver:  Solving for Uz, Initial residual = 0.0906129, Final residual = 0.00285078, No Iterations 2
GAMG:  Solving for p, Initial residual = 0.229793, Final residual = 0.00829016, No Iterations 2
time step continuity errors : sum local = 0.563109, global = -0.1715, cumulative = 28.4696
smoothSolver:  Solving for epsilon, Initial residual = 0.0344847, Final residual = 0.000965792, No Iterations 2
smoothSolver:  Solving for k, Initial residual = 0.0631095, Final residual = 0.00327117, No Iterations 2
ExecutionTime = 0.155243 s  ClockTime = 0 s

Time = 16s

smoothSolver:  Solving for Ux, Initial residual = 0.0503204, Final residual = 0.00185984, No Iterations 2
smoothSolver:  Solving for Uy, Initial residual = 0.0299774, Final residual = 0.00106662, No Iterations 2
smoothSolver:  Solving for Uz, Initial residual = 0.0712863, Final residual = 0.00195616, No Iterations 2
GAMG:  Solving for p, Initial residual = 0.173173, Final residual = 0.00630217, No Iterations 2
time step continuity errors : sum local = 0.422834, global = -0.0308386, cumulative = 28.4388
smoothSolver:  Solving for epsilon, Initial residual = 0.0314388, Final residual = 0.000911277, No Iterations 2
smoothSolver:  Solving for k, Initial residual = 0.0613188, Final residual = 0.00318821, No Iterations 2
ExecutionTime = 0.15939 s  ClockTime = 0 s

Time = 17s

smoothSolver:  Solving for Ux, Initial residual = 0.0419389, Final residual = 0.00140004, No Iterations 2
smoothSolver:  Solving for Uy, Initial residual = 0.0252106, Final residual = 0.000729264, No Iterations 2
smoothSolver:  Solving for Uz, Initial residual = 0.0596109, Final residual = 0.00205949, No Iterations 2
GAMG:  Solving for p, Initial residual = 0.112068, Final residual = 0.00475586, No Iterations 2
time step continuity errors : sum local = 0.360249, global = 0.0911459, cumulative = 28.5299
smoothSolver:  Solving for epsilon, Initial residual = 0.0286472, Final residual = 0.000840406, No Iterations 2
smoothSolver:  Solving for k, Initial residual = 0.0598027, Final residual = 0.00306201, No Iterations 2
ExecutionTime = 0.163453 s  ClockTime = 0 s

Time = 18s

smoothSolver:  Solving for Ux, Initial residual = 0.0337598, Final residual = 0.00129508, No Iterations 2
smoothSolver:  Solving for Uy, Initial residual = 0.014215, Final residual = 0.000481629, No Iterations 2
smoothSolver:  Solving for Uz, Initial residual = 0.0396248, Final residual = 0.00119955, No Iterations 2
GAMG:  Solving for p, Initial residual = 0.0746369, Final residual = 0.00394006, No Iterations 2
time step continuity errors : sum local = 0.292628, global = 0.0377626, cumulative = 28.5677
smoothSolver:  Solving for epsilon, Initial residual = 0.0260517, Final residual = 0.000761272, No Iterations 2
smoothSolver:  Solving for k, Initial residual = 0.0580591, Final residual = 0.00290398, No Iterations 2
ExecutionTime = 0.167478 s  ClockTime = 0 s

Time = 19s

smoothSolver:  Solving for Ux, Initial residual = 0.0302818, Final residual = 0.00103679, No Iterations 2
smoothSolver:  Solving for Uy, Initial residual = 0.0165297, Final residual = 0.000532284, No Iterations 2
smoothSolver:  Solving for Uz, Initial residual = 0.0365778, Final residual = 0.000891009, No Iterations 2
GAMG:  Solving for p, Initial residual = 0.0814502, Final residual = 0.00407905, No Iterations 2
time step continuity errors : sum local = 0.264843, global = -0.111399, cumulative = 28.4563
smoothSolver:  Solving for epsilon, Initial residual = 0.0244573, Final residual = 0.000704168, No Iterations 2
smoothSolver:  Solving for k, Initial residual = 0.0570766, Final residual = 0.00278617, No Iterations 2
ExecutionTime = 0.171834 s  ClockTime = 0 s

Time = 20s

smoothSolver:  Solving for Ux, Initial residual = 0.022237, Final residual = 0.000695196, No Iterations 2
smoothSolver:  Solving for Uy, Initial residual = 0.0117067, Final residual = 0.00038069, No Iterations 2
smoothSolver:  Solving for Uz, Initial residual = 0.026541, Final residual = 0.000644928, No Iterations 2
GAMG:  Solving for p, Initial residual = 0.0606045, Final residual = 0.00383369, No Iterations 2
time step continuity errors : sum local = 0.258811, global = -0.0622073, cumulative = 28.3941
smoothSolver:  Solving for epsilon, Initial residual = 0.0241196, Final residual = 0.000658926, No Iterations 2
smoothSolver:  Solving for k, Initial residual = 0.0565981, Final residual = 0.00267646, No Iterations 2
ExecutionTime = 0.176135 s  ClockTime = 0 s

Time = 21s

smoothSolver:  Solving for Ux, Initial residual = 0.0240565, Final residual = 0.000914778, No Iterations 2
smoothSolver:  Solving for Uy, Initial residual = 0.0128647, Final residual = 0.000413689, No Iterations 2
smoothSolver:  Solving for Uz, Initial residual = 0.02592, Final residual = 0.000712314, No Iterations 2
GAMG:  Solving for p, Initial residual = 0.0550255, Final residual = 0.00223873, No Iterations 2
time step continuity errors : sum local = 0.167742, global = 0.0159907, cumulative = 28.4101
smoothSolver:  Solving for epsilon, Initial residual = 0.0232025, Final residual = 0.000597129, No Iterations 2
smoothSolver:  Solving for k, Initial residual = 0.0550609, Final residual = 0.00250768, No Iterations 2
ExecutionTime = 0.180665 s  ClockTime = 0 s

Time = 22s

smoothSolver:  Solving for Ux, Initial residual = 0.0180717, Final residual = 0.000512783, No Iterations 2
smoothSolver:  Solving for Uy, Initial residual = 0.00834891, Final residual = 0.00020481, No Iterations 2
smoothSolver:  Solving for Uz, Initial residual = 0.0255555, Final residual = 0.000573448, No Iterations 2
GAMG:  Solving for p, Initial residual = 0.0438239, Final residual = 0.00138226, No Iterations 2
time step continuity errors : sum local = 0.0972941, global = 0.0177729, cumulative = 28.4279
smoothSolver:  Solving for epsilon, Initial residual = 0.0221659, Final residual = 0.000542183, No Iterations 2
smoothSolver:  Solving for k, Initial residual = 0.0537613, Final residual = 0.00235454, No Iterations 2
ExecutionTime = 0.18525 s  ClockTime = 0 s

Time = 23s

smoothSolver:  Solving for Ux, Initial residual = 0.0163568, Final residual = 0.000412427, No Iterations 2
smoothSolver:  Solving for Uy, Initial residual = 0.00701563, Final residual = 0.000177272, No Iterations 2
smoothSolver:  Solving for Uz, Initial residual = 0.0197309, Final residual = 0.000388919, No Iterations 2
GAMG:  Solving for p, Initial residual = 0.0393963, Final residual = 0.00123157, No Iterations 2
time step continuity errors : sum local = 0.0865638, global = -0.0105261, cumulative = 28.4173
smoothSolver:  Solving for epsilon, Initial residual = 0.0217635, Final residual = 0.000501958, No Iterations 2
smoothSolver:  Solving for k, Initial residual = 0.0529387, Final residual = 0.00222786, No Iterations 2
ExecutionTime = 0.189391 s  ClockTime = 0 s

Time = 24s

smoothSolver:  Solving for Ux, Initial residual = 0.0139279, Final residual = 0.000334015, No Iterations 2
smoothSolver:  Solving for Uy, Initial residual = 0.00619917, Final residual = 0.000148252, No Iterations 2
smoothSolver:  Solving for Uz, Initial residual = 0.0182666, Final residual = 0.000388464, No Iterations 2
GAMG:  Solving for p, Initial residual = 0.0395036, Final residual = 0.000963457, No Iterations 2
time step continuity errors : sum local = 0.0698318, global = 0.00366576, cumulative = 28.421
smoothSolver:  Solving for epsilon, Initial residual = 0.0212785, Final residual = 0.000461736, No Iterations 2
smoothSolver:  Solving for k, Initial residual = 0.0514423, Final residual = 0.00208293, No Iterations 2
ExecutionTime = 0.193686 s  ClockTime = 0 s

Time = 25s

smoothSolver:  Solving for Ux, Initial residual = 0.0114596, Final residual = 0.000235407, No Iterations 2
smoothSolver:  Solving for Uy, Initial residual = 0.00580622, Final residual = 0.000119517, No Iterations 2
smoothSolver:  Solving for Uz, Initial residual = 0.0171961, Final residual = 0.000330738, No Iterations 2
GAMG:  Solving for p, Initial residual = 0.0308504, Final residual = 0.000738266, No Iterations 2
time step continuity errors : sum local = 0.0538991, global = 0.00276408, cumulative = 28.4238
smoothSolver:  Solving for epsilon, Initial residual = 0.0207817, Final residual = 0.00042458, No Iterations 2
smoothSolver:  Solving for k, Initial residual = 0.0498876, Final residual = 0.00194333, No Iterations 2
ExecutionTime = 0.1979 s  ClockTime = 0 s

Time = 26s

smoothSolver:  Solving for Ux, Initial residual = 0.0110948, Final residual = 0.000217022, No Iterations 2
smoothSolver:  Solving for Uy, Initial residual = 0.00458793, Final residual = 9.90423e-05, No Iterations 2
smoothSolver:  Solving for Uz, Initial residual = 0.0140529, Final residual = 0.000252458, No Iterations 2
GAMG:  Solving for p, Initial residual = 0.0277718, Final residual = 0.00070649, No Iterations 2
time step continuity errors : sum local = 0.0514692, global = -0.000223104, cumulative = 28.4235
smoothSolver:  Solving for epsilon, Initial residual = 0.020275, Final residual = 0.000391506, No Iterations 2
smoothSolver:  Solving for k, Initial residual = 0.0484358, Final residual = 0.00181506, No Iterations 2
ExecutionTime = 0.202253 s  ClockTime = 0 s

Time = 27s

smoothSolver:  Solving for Ux, Initial residual = 0.0105103, Final residual = 0.000190883, No Iterations 2
smoothSolver:  Solving for Uy, Initial residual = 0.00437366, Final residual = 8.6317e-05, No Iterations 2
smoothSolver:  Solving for Uz, Initial residual = 0.0128129, Final residual = 0.000212562, No Iterations 2
GAMG:  Solving for p, Initial residual = 0.0272134, Final residual = 0.000475112, No Iterations 2
time step continuity errors : sum local = 0.0348518, global = 0.0032858, cumulative = 28.4268
smoothSolver:  Solving for epsilon, Initial residual = 0.0197183, Final residual = 0.000362414, No Iterations 2
smoothSolver:  Solving for k, Initial residual = 0.0468859, Final residual = 0.00169372, No Iterations 2
ExecutionTime = 0.206978 s  ClockTime = 0 s

Time = 28s

smoothSolver:  Solving for Ux, Initial residual = 0.00904328, Final residual = 0.000151189, No Iterations 2
smoothSolver:  Solving for Uy, Initial residual = 0.00431607, Final residual = 7.57411e-05, No Iterations 2
smoothSolver:  Solving for Uz, Initial residual = 0.0117954, Final residual = 0.000184805, No Iterations 2
GAMG:  Solving for p, Initial residual = 0.0240389, Final residual = 0.00211723, No Iterations 1
time step continuity errors : sum local = 0.156341, global = 0.0040959, cumulative = 28.4309
smoothSolver:  Solving for epsilon, Initial residual = 0.0192292, Final residual = 0.000336412, No Iterations 2
smoothSolver:  Solving for k, Initial residual = 0.0454124, Final residual = 0.00158286, No Iterations 2
ExecutionTime = 0.211001 s  ClockTime = 0 s

Time = 29s

smoothSolver:  Solving for Ux, Initial residual = 0.00840131, Final residual = 0.000146593, No Iterations 2
smoothSolver:  Solving for Uy, Initial residual = 0.00391234, Final residual = 7.11075e-05, No Iterations 2
smoothSolver:  Solving for Uz, Initial residual = 0.010618, Final residual = 0.000177905, No Iterations 2
GAMG:  Solving for p, Initial residual = 0.0218429, Final residual = 0.00206381, No Iterations 1
time step continuity errors : sum local = 0.153221, global = 0.00676801, cumulative = 28.4377
smoothSolver:  Solving for epsilon, Initial residual = 0.0187484, Final residual = 0.000312201, No Iterations 2
smoothSolver:  Solving for k, Initial residual = 0.0440044, Final residual = 0.00148055, No Iterations 2
ExecutionTime = 0.214902 s  ClockTime = 0 s

Time = 30s

smoothSolver:  Solving for Ux, Initial residual = 0.00819241, Final residual = 0.000152985, No Iterations 2
smoothSolver:  Solving for Uy, Initial residual = 0.00373026, Final residual = 6.70759e-05, No Iterations 2
smoothSolver:  Solving for Uz, Initial residual = 0.00952474, Final residual = 0.00015339, No Iterations 2
GAMG:  Solving for p, Initial residual = 0.0206152, Final residual = 0.00183383, No Iterations 1
time step continuity errors : sum local = 0.136568, global = 0.00934475, cumulative = 28.447
smoothSolver:  Solving for epsilon, Initial residual = 0.0182377, Final residual = 0.000289689, No Iterations 2
smoothSolver:  Solving for k, Initial residual = 0.0426547, Final residual = 0.00138579, No Iterations 2
ExecutionTime = 0.218926 s  ClockTime = 0 s

Time = 31s

smoothSolver:  Solving for Ux, Initial residual = 0.00790142, Final residual = 0.000149776, No Iterations 2
smoothSolver:  Solving for Uy, Initial residual = 0.00363517, Final residual = 6.37073e-05, No Iterations 2
smoothSolver:  Solving for Uz, Initial residual = 0.00905603, Final residual = 0.000142856, No Iterations 2
GAMG:  Solving for p, Initial residual = 0.0200399, Final residual = 0.00189977, No Iterations 1
time step continuity errors : sum local = 0.141881, global = 0.0112477, cumulative = 28.4583
smoothSolver:  Solving for epsilon, Initial residual = 0.0176731, Final residual = 0.000268914, No Iterations 2
smoothSolver:  Solving for k, Initial residual = 0.0413793, Final residual = 0.00129885, No Iterations 2
ExecutionTime = 0.223846 s  ClockTime = 0 s

Time = 32s

smoothSolver:  Solving for Ux, Initial residual = 0.00752141, Final residual = 0.000137246, No Iterations 2
smoothSolver:  Solving for Uy, Initial residual = 0.0036317, Final residual = 6.14541e-05, No Iterations 2
smoothSolver:  Solving for Uz, Initial residual = 0.00892997, Final residual = 0.000137683, No Iterations 2
GAMG:  Solving for p, Initial residual = 0.019202, Final residual = 0.000691805, No Iterations 2
time step continuity errors : sum local = 0.051798, global = 0.00183295, cumulative = 28.4601
smoothSolver:  Solving for epsilon, Initial residual = 0.0170385, Final residual = 0.000249824, No Iterations 2
smoothSolver:  Solving for k, Initial residual = 0.0401952, Final residual = 0.00122084, No Iterations 2
ExecutionTime = 0.228255 s  ClockTime = 0 s

Time = 33s

smoothSolver:  Solving for Ux, Initial residual = 0.00746772, Final residual = 0.00013859, No Iterations 2
smoothSolver:  Solving for Uy, Initial residual = 0.00365386, Final residual = 6.07614e-05, No Iterations 2
smoothSolver:  Solving for Uz, Initial residual = 0.00910975, Final residual = 0.000129452, No Iterations 2
GAMG:  Solving for p, Initial residual = 0.0211384, Final residual = 0.00193837, No Iterations 1
time step continuity errors : sum local = 0.144529, global = -0.00779246, cumulative = 28.4523
smoothSolver:  Solving for epsilon, Initial residual = 0.0164016, Final residual = 0.00023197, No Iterations 2
smoothSolver:  Solving for k, Initial residual = 0.0390671, Final residual = 0.00114942, No Iterations 2
ExecutionTime = 0.232186 s  ClockTime = 0 s

Time = 34s

smoothSolver:  Solving for Ux, Initial residual = 0.00617027, Final residual = 9.90493e-05, No Iterations 2
smoothSolver:  Solving for Uy, Initial residual = 0.00347616, Final residual = 5.51582e-05, No Iterations 2
smoothSolver:  Solving for Uz, Initial residual = 0.00851624, Final residual = 0.000112798, No Iterations 2
GAMG:  Solving for p, Initial residual = 0.0190144, Final residual = 0.00178141, No Iterations 1
time step continuity errors : sum local = 0.133658, global = -0.0144703, cumulative = 28.4379
smoothSolver:  Solving for epsilon, Initial residual = 0.0159203, Final residual = 0.0002169, No Iterations 2
smoothSolver:  Solving for k, Initial residual = 0.0380688, Final residual = 0.00108588, No Iterations 2
ExecutionTime = 0.236154 s  ClockTime = 0 s

Time = 35s

smoothSolver:  Solving for Ux, Initial residual = 0.00662701, Final residual = 0.000132079, No Iterations 2
smoothSolver:  Solving for Uy, Initial residual = 0.00340254, Final residual = 5.13566e-05, No Iterations 2
smoothSolver:  Solving for Uz, Initial residual = 0.00794159, Final residual = 0.00076461, No Iterations 1
GAMG:  Solving for p, Initial residual = 0.0172455, Final residual = 0.00151276, No Iterations 1
time step continuity errors : sum local = 0.114699, global = -0.0151503, cumulative = 28.4227
smoothSolver:  Solving for epsilon, Initial residual = 0.0154955, Final residual = 0.000203028, No Iterations 2
smoothSolver:  Solving for k, Initial residual = 0.0371586, Final residual = 0.00102605, No Iterations 2
ExecutionTime = 0.240749 s  ClockTime = 0 s

Time = 36s

smoothSolver:  Solving for Ux, Initial residual = 0.00608972, Final residual = 0.000130622, No Iterations 2
smoothSolver:  Solving for Uy, Initial residual = 0.00341136, Final residual = 6.02076e-05, No Iterations 2
smoothSolver:  Solving for Uz, Initial residual = 0.00790631, Final residual = 0.000110368, No Iterations 2
GAMG:  Solving for p, Initial residual = 0.0166648, Final residual = 0.000382259, No Iterations 2
time step continuity errors : sum local = 0.029227, global = -0.00390541, cumulative = 28.4188
smoothSolver:  Solving for epsilon, Initial residual = 0.0149167, Final residual = 0.0014772, No Iterations 1
smoothSolver:  Solving for k, Initial residual = 0.0363957, Final residual = 0.00097288, No Iterations 2
ExecutionTime = 0.245827 s  ClockTime = 0 s

Time = 37s

smoothSolver:  Solving for Ux, Initial residual = 0.00619638, Final residual = 0.000118475, No Iterations 2
smoothSolver:  Solving for Uy, Initial residual = 0.00368829, Final residual = 7.48197e-05, No Iterations 2
smoothSolver:  Solving for Uz, Initial residual = 0.00795405, Final residual = 0.000133273, No Iterations 2
GAMG:  Solving for p, Initial residual = 0.0165488, Final residual = 0.00161237, No Iterations 1
time step continuity errors : sum local = 0.124413, global = 0.0114553, cumulative = 28.4303
smoothSolver:  Solving for epsilon, Initial residual = 0.0147414, Final residual = 0.00144777, No Iterations 1
smoothSolver:  Solving for k, Initial residual = 0.0356823, Final residual = 0.000919274, No Iterations 2
ExecutionTime = 0.249792 s  ClockTime = 0 s

Time = 38s

smoothSolver:  Solving for Ux, Initial residual = 0.00556697, Final residual = 0.000111503, No Iterations 2
smoothSolver:  Solving for Uy, Initial residual = 0.00340992, Final residual = 6.27766e-05, No Iterations 2
smoothSolver:  Solving for Uz, Initial residual = 0.00703664, Final residual = 0.000104943, No Iterations 2
GAMG:  Solving for p, Initial residual = 0.0135902, Final residual = 0.000547135, No Iterations 2
time step continuity errors : sum local = 0.0424645, global = -0.00222982, cumulative = 28.428
smoothSolver:  Solving for epsilon, Initial residual = 0.0142321, Final residual = 0.00139823, No Iterations 1
smoothSolver:  Solving for k, Initial residual = 0.034623, Final residual = 0.000862176, No Iterations 2
ExecutionTime = 0.254088 s  ClockTime = 0 s

Time = 39s

smoothSolver:  Solving for Ux, Initial residual = 0.00597373, Final residual = 0.000103648, No Iterations 2
smoothSolver:  Solving for Uy, Initial residual = 0.00327541, Final residual = 5.93904e-05, No Iterations 2
smoothSolver:  Solving for Uz, Initial residual = 0.00687358, Final residual = 0.000683471, No Iterations 1
GAMG:  Solving for p, Initial residual = 0.0162684, Final residual = 0.00154582, No Iterations 1
time step continuity errors : sum local = 0.119167, global = -0.00743734, cumulative = 28.4206
smoothSolver:  Solving for epsilon, Initial residual = 0.0136351, Final residual = 0.00133244, No Iterations 1
smoothSolver:  Solving for k, Initial residual = 0.0333931, Final residual = 0.000801079, No Iterations 2
ExecutionTime = 0.258743 s  ClockTime = 0 s

Time = 40s

smoothSolver:  Solving for Ux, Initial residual = 0.00482883, Final residual = 8.87145e-05, No Iterations 2
smoothSolver:  Solving for Uy, Initial residual = 0.00319374, Final residual = 5.85925e-05, No Iterations 2
smoothSolver:  Solving for Uz, Initial residual = 0.00659799, Final residual = 9.32465e-05, No Iterations 2
GAMG:  Solving for p, Initial residual = 0.0139774, Final residual = 0.000422739, No Iterations 2
time step continuity errors : sum local = 0.0328896, global = 0.00205545, cumulative = 28.4226
smoothSolver:  Solving for epsilon, Initial residual = 0.0131157, Final residual = 0.00127262, No Iterations 1
smoothSolver:  Solving for k, Initial residual = 0.0319551, Final residual = 0.000740768, No Iterations 2
ExecutionTime = 0.263162 s  ClockTime = 0 s

Time = 41s

smoothSolver:  Solving for Ux, Initial residual = 0.0059122, Final residual = 0.00011348, No Iterations 2
smoothSolver:  Solving for Uy, Initial residual = 0.00356937, Final residual = 6.71218e-05, No Iterations 2
smoothSolver:  Solving for Uz, Initial residual = 0.00619404, Final residual = 8.96273e-05, No Iterations 2
GAMG:  Solving for p, Initial residual = 0.0121151, Final residual = 0.000378418, No Iterations 2
time step continuity errors : sum local = 0.0298737, global = 0.00556615, cumulative = 28.4282
smoothSolver:  Solving for epsilon, Initial residual = 0.0124804, Final residual = 0.00120149, No Iterations 1
smoothSolver:  Solving for k, Initial residual = 0.0303409, Final residual = 0.000677968, No Iterations 2
ExecutionTime = 0.267207 s  ClockTime = 0 s

Time = 42s

smoothSolver:  Solving for Ux, Initial residual = 0.00521166, Final residual = 9.04095e-05, No Iterations 2
smoothSolver:  Solving for Uy, Initial residual = 0.0031608, Final residual = 6.30597e-05, No Iterations 2
smoothSolver:  Solving for Uz, Initial residual = 0.00582295, Final residual = 8.20949e-05, No Iterations 2
GAMG:  Solving for p, Initial residual = 0.0119813, Final residual = 0.000322732, No Iterations 2
time step continuity errors : sum local = 0.025515, global = -0.00217853, cumulative = 28.426
smoothSolver:  Solving for epsilon, Initial residual = 0.0114479, Final residual = 0.00110014, No Iterations 1
smoothSolver:  Solving for k, Initial residual = 0.0281947, Final residual = 0.000608554, No Iterations 2
ExecutionTime = 0.271319 s  ClockTime = 0 s

Time = 43s

smoothSolver:  Solving for Ux, Initial residual = 0.00428246, Final residual = 8.36794e-05, No Iterations 2
smoothSolver:  Solving for Uy, Initial residual = 0.0029096, Final residual = 5.7451e-05, No Iterations 2
smoothSolver:  Solving for Uz, Initial residual = 0.00522982, Final residual = 7.46068e-05, No Iterations 2
GAMG:  Solving for p, Initial residual = 0.0107927, Final residual = 0.0010532, No Iterations 1
time step continuity errors : sum local = 0.0833053, global = -0.00603697, cumulative = 28.42
smoothSolver:  Solving for epsilon, Initial residual = 0.0105494, Final residual = 0.00100368, No Iterations 1
smoothSolver:  Solving for k, Initial residual = 0.0261322, Final residual = 0.000541993, No Iterations 2
ExecutionTime = 0.276149 s  ClockTime = 0 s

Time = 44s

smoothSolver:  Solving for Ux, Initial residual = 0.00363398, Final residual = 7.13867e-05, No Iterations 2
smoothSolver:  Solving for Uy, Initial residual = 0.00274396, Final residual = 5.29356e-05, No Iterations 2
smoothSolver:  Solving for Uz, Initial residual = 0.00469088, Final residual = 0.000455497, No Iterations 1
GAMG:  Solving for p, Initial residual = 0.00928362, Final residual = 0.000302025, No Iterations 2
time step continuity errors : sum local = 0.0240246, global = -0.00078951, cumulative = 28.4192
smoothSolver:  Solving for epsilon, Initial residual = 0.00961474, Final residual = 0.000911568, No Iterations 1
smoothSolver:  Solving for k, Initial residual = 0.023985, Final residual = 0.000480124, No Iterations 2
ExecutionTime = 0.281175 s  ClockTime = 0 s

Time = 45s

smoothSolver:  Solving for Ux, Initial residual = 0.00388001, Final residual = 7.67128e-05, No Iterations 2
smoothSolver:  Solving for Uy, Initial residual = 0.00299744, Final residual = 5.47048e-05, No Iterations 2
smoothSolver:  Solving for Uz, Initial residual = 0.00487763, Final residual = 7.0894e-05, No Iterations 2
GAMG:  Solving for p, Initial residual = 0.0109073, Final residual = 0.000254172, No Iterations 2
time step continuity errors : sum local = 0.0204089, global = 0.0027957, cumulative = 28.422
smoothSolver:  Solving for epsilon, Initial residual = 0.00862147, Final residual = 0.000815876, No Iterations 1
smoothSolver:  Solving for k, Initial residual = 0.0216906, Final residual = 0.000420297, No Iterations 2
ExecutionTime = 0.285362 s  ClockTime = 0 s

Time = 46s

smoothSolver:  Solving for Ux, Initial residual = 0.00336989, Final residual = 7.05528e-05, No Iterations 2
smoothSolver:  Solving for Uy, Initial residual = 0.00268852, Final residual = 5.07834e-05, No Iterations 2
smoothSolver:  Solving for Uz, Initial residual = 0.00435682, Final residual = 5.65281e-05, No Iterations 2
GAMG:  Solving for p, Initial residual = 0.00860966, Final residual = 0.000850391, No Iterations 1
time step continuity errors : sum local = 0.0684648, global = 0.00555868, cumulative = 28.4276
smoothSolver:  Solving for epsilon, Initial residual = 0.00772302, Final residual = 0.000720951, No Iterations 1
smoothSolver:  Solving for k, Initial residual = 0.019493, Final residual = 0.000362794, No Iterations 2
ExecutionTime = 0.289085 s  ClockTime = 0 s

Time = 47s

smoothSolver:  Solving for Ux, Initial residual = 0.00270749, Final residual = 5.68869e-05, No Iterations 2
smoothSolver:  Solving for Uy, Initial residual = 0.00230215, Final residual = 4.34371e-05, No Iterations 2
smoothSolver:  Solving for Uz, Initial residual = 0.00354208, Final residual = 0.000350664, No Iterations 1
GAMG:  Solving for p, Initial residual = 0.00644287, Final residual = 0.000235538, No Iterations 2
time step continuity errors : sum local = 0.0190396, global = -0.000890795, cumulative = 28.4267
smoothSolver:  Solving for epsilon, Initial residual = 0.00673784, Final residual = 0.000625928, No Iterations 1
smoothSolver:  Solving for k, Initial residual = 0.0172161, Final residual = 0.000308744, No Iterations 2
ExecutionTime = 0.293443 s  ClockTime = 0 s

Time = 48s

smoothSolver:  Solving for Ux, Initial residual = 0.00320049, Final residual = 6.04252e-05, No Iterations 2
smoothSolver:  Solving for Uy, Initial residual = 0.00219851, Final residual = 4.35835e-05, No Iterations 2
smoothSolver:  Solving for Uz, Initial residual = 0.00338543, Final residual = 5.40566e-05, No Iterations 2
GAMG:  Solving for p, Initial residual = 0.00640875, Final residual = 0.000202307, No Iterations 2
time step continuity errors : sum local = 0.0163293, global = -0.00381773, cumulative = 28.4229
smoothSolver:  Solving for epsilon, Initial residual = 0.00582834, Final residual = 0.000534577, No Iterations 1
smoothSolver:  Solving for k, Initial residual = 0.015061, Final residual = 0.000258826, No Iterations 2
ExecutionTime = 0.298261 s  ClockTime = 0 s

Time = 49s

smoothSolver:  Solving for Ux, Initial residual = 0.00268124, Final residual = 4.71877e-05, No Iterations 2
smoothSolver:  Solving for Uy, Initial residual = 0.00204542, Final residual = 3.60795e-05, No Iterations 2
smoothSolver:  Solving for Uz, Initial residual = 0.00303375, Final residual = 0.000294812, No Iterations 1
GAMG:  Solving for p, Initial residual = 0.00590019, Final residual = 0.000181188, No Iterations 2
time step continuity errors : sum local = 0.0147439, global = -0.00314789, cumulative = 28.4197
smoothSolver:  Solving for epsilon, Initial residual = 0.0050412, Final residual = 0.00045514, No Iterations 1
smoothSolver:  Solving for k, Initial residual = 0.0130347, Final residual = 0.00021553, No Iterations 2
ExecutionTime = 0.302666 s  ClockTime = 0 s

Time = 50s

smoothSolver:  Solving for Ux, Initial residual = 0.00210081, Final residual = 4.3531e-05, No Iterations 2
smoothSolver:  Solving for Uy, Initial residual = 0.00197828, Final residual = 3.19746e-05, No Iterations 2
smoothSolver:  Solving for Uz, Initial residual = 0.0029447, Final residual = 3.69154e-05, No Iterations 2
GAMG:  Solving for p, Initial residual = 0.00546197, Final residual = 0.000118228, No Iterations 2
time step continuity errors : sum local = 0.00965341, global = -0.000297263, cumulative = 28.4194
smoothSolver:  Solving for epsilon, Initial residual = 0.00443581, Final residual = 0.000388114, No Iterations 1
smoothSolver:  Solving for k, Initial residual = 0.0112476, Final residual = 0.00017744, No Iterations 2
ExecutionTime = 0.306781 s  ClockTime = 0 s

Time = 51s

smoothSolver:  Solving for Ux, Initial residual = 0.00187984, Final residual = 3.53034e-05, No Iterations 2
smoothSolver:  Solving for Uy, Initial residual = 0.00171311, Final residual = 2.80209e-05, No Iterations 2
smoothSolver:  Solving for Uz, Initial residual = 0.00235486, Final residual = 3.08057e-05, No Iterations 2
GAMG:  Solving for p, Initial residual = 0.00364031, Final residual = 9.16992e-05, No Iterations 2
time step continuity errors : sum local = 0.0075061, global = -0.000350159, cumulative = 28.4191
smoothSolver:  Solving for epsilon, Initial residual = 0.0037432, Final residual = 0.000321325, No Iterations 1
smoothSolver:  Solving for k, Initial residual = 0.00953424, Final residual = 0.000143332, No Iterations 2
ExecutionTime = 0.312097 s  ClockTime = 0 s

Time = 52s

smoothSolver:  Solving for Ux, Initial residual = 0.00150254, Final residual = 2.82727e-05, No Iterations 2
smoothSolver:  Solving for Uy, Initial residual = 0.00149456, Final residual = 2.39769e-05, No Iterations 2
smoothSolver:  Solving for Uz, Initial residual = 0.00215838, Final residual = 2.81608e-05, No Iterations 2
GAMG:  Solving for p, Initial residual = 0.00366579, Final residual = 8.46481e-05, No Iterations 2
time step continuity errors : sum local = 0.00694496, global = -0.000968987, cumulative = 28.4181
smoothSolver:  Solving for epsilon, Initial residual = 0.00314559, Final residual = 0.000262787, No Iterations 1
smoothSolver:  Solving for k, Initial residual = 0.00799077, Final residual = 0.000114927, No Iterations 2
ExecutionTime = 0.316453 s  ClockTime = 0 s

Time = 53s

smoothSolver:  Solving for Ux, Initial residual = 0.00127244, Final residual = 2.3463e-05, No Iterations 2
smoothSolver:  Solving for Uy, Initial residual = 0.00133467, Final residual = 2.12033e-05, No Iterations 2
smoothSolver:  Solving for Uz, Initial residual = 0.00193018, Final residual = 2.39834e-05, No Iterations 2
GAMG:  Solving for p, Initial residual = 0.00297866, Final residual = 7.02261e-05, No Iterations 2
time step continuity errors : sum local = 0.005777, global = -0.000870569, cumulative = 28.4172
smoothSolver:  Solving for epsilon, Initial residual = 0.00266886, Final residual = 0.000215491, No Iterations 1
smoothSolver:  Solving for k, Initial residual = 0.00667501, Final residual = 9.20213e-05, No Iterations 2
ExecutionTime = 0.321175 s  ClockTime = 0 s

Time = 54s

smoothSolver:  Solving for Ux, Initial residual = 0.00117696, Final residual = 2.0705e-05, No Iterations 2
smoothSolver:  Solving for Uy, Initial residual = 0.00112188, Final residual = 1.65587e-05, No Iterations 2
smoothSolver:  Solving for Uz, Initial residual = 0.00148817, Final residual = 0.000146088, No Iterations 1
GAMG:  Solving for p, Initial residual = 0.00224787, Final residual = 5.8562e-05, No Iterations 2
time step continuity errors : sum local = 0.00482353, global = -0.000245431, cumulative = 28.417
smoothSolver:  Solving for epsilon, Initial residual = 0.00223672, Final residual = 0.00017639, No Iterations 1
smoothSolver:  Solving for k, Initial residual = 0.00553301, Final residual = 7.38829e-05, No Iterations 2
ExecutionTime = 0.325153 s  ClockTime = 0 s

Time = 55s

smoothSolver:  Solving for Ux, Initial residual = 0.000969376, Final residual = 1.73597e-05, No Iterations 2
smoothSolver:  Solving for Uy, Initial residual = 0.00100197, Final residual = 1.46049e-05, No Iterations 2
smoothSolver:  Solving for Uz, Initial residual = 0.00143698, Final residual = 0.000143467, No Iterations 1
GAMG:  Solving for p, Initial residual = 0.00231523, Final residual = 0.000228959, No Iterations 1
time step continuity errors : sum local = 0.0188905, global = -0.000215888, cumulative = 28.4168
smoothSolver:  Solving for epsilon, Initial residual = 0.00182558, Final residual = 0.000141525, No Iterations 1
smoothSolver:  Solving for k, Initial residual = 0.00452833, Final residual = 5.89509e-05, No Iterations 2
ExecutionTime = 0.329269 s  ClockTime = 0 s

Time = 56s

smoothSolver:  Solving for Ux, Initial residual = 0.000753745, Final residual = 1.37434e-05, No Iterations 2
smoothSolver:  Solving for Uy, Initial residual = 0.000821146, Final residual = 1.21383e-05, No Iterations 2
smoothSolver:  Solving for Uz, Initial residual = 0.0011708, Final residual = 0.000112717, No Iterations 1
GAMG:  Solving for p, Initial residual = 0.00166853, Final residual = 3.49688e-05, No Iterations 2
time step continuity errors : sum local = 0.00288403, global = -0.000565016, cumulative = 28.4162
smoothSolver:  Solving for epsilon, Initial residual = 0.0014917, Final residual = 0.000113519, No Iterations 1
smoothSolver:  Solving for k, Initial residual = 0.00368458, Final residual = 4.68311e-05, No Iterations 2
ExecutionTime = 0.333523 s  ClockTime = 0 s

Time = 57s

smoothSolver:  Solving for Ux, Initial residual = 0.000818317, Final residual = 1.33031e-05, No Iterations 2
smoothSolver:  Solving for Uy, Initial residual = 0.000736678, Final residual = 1.05388e-05, No Iterations 2
smoothSolver:  Solving for Uz, Initial residual = 0.00109811, Final residual = 1.52466e-05, No Iterations 2
GAMG:  Solving for p, Initial residual = 0.00178942, Final residual = 0.000172999, No Iterations 1
time step continuity errors : sum local = 0.0142925, global = 0.000304085, cumulative = 28.4165
smoothSolver:  Solving for epsilon, Initial residual = 0.00123194, Final residual = 9.17575e-05, No Iterations 1
smoothSolver:  Solving for k, Initial residual = 0.00301512, Final residual = 3.71595e-05, No Iterations 2
ExecutionTime = 0.337866 s  ClockTime = 0 s

Time = 58s

smoothSolver:  Solving for Ux, Initial residual = 0.000619948, Final residual = 1.11951e-05, No Iterations 2
smoothSolver:  Solving for Uy, Initial residual = 0.00061462, Final residual = 8.62959e-06, No Iterations 2
smoothSolver:  Solving for Uz, Initial residual = 0.000878349, Final residual = 8.36093e-05, No Iterations 1
GAMG:  Solving for p, Initial residual = 0.00142495, Final residual = 0.000133452, No Iterations 1
time step continuity errors : sum local = 0.0110317, global = -0.000269658, cumulative = 28.4162
smoothSolver:  Solving for epsilon, Initial residual = 0.000993757, Final residual = 7.30356e-05, No Iterations 1
smoothSolver:  Solving for k, Initial residual = 0.0024296, Final residual = 2.88598e-05, No Iterations 2
ExecutionTime = 0.342449 s  ClockTime = 0 s

Time = 59s

smoothSolver:  Solving for Ux, Initial residual = 0.00057601, Final residual = 9.98995e-06, No Iterations 2
smoothSolver:  Solving for Uy, Initial residual = 0.000507952, Final residual = 7.28517e-06, No Iterations 2
smoothSolver:  Solving for Uz, Initial residual = 0.000738411, Final residual = 1.0201e-05, No Iterations 2
GAMG:  Solving for p, Initial residual = 0.00112522, Final residual = 3.16782e-05, No Iterations 2
time step continuity errors : sum local = 0.00261954, global = -0.000122265, cumulative = 28.4161
smoothSolver:  Solving for epsilon, Initial residual = 0.000812947, Final residual = 5.88069e-05, No Iterations 1
smoothSolver:  Solving for k, Initial residual = 0.00195735, Final residual = 2.2381e-05, No Iterations 2
ExecutionTime = 0.346606 s  ClockTime = 0 s

Time = 60s

smoothSolver:  Solving for Ux, Initial residual = 0.000464242, Final residual = 7.64036e-06, No Iterations 2
smoothSolver:  Solving for Uy, Initial residual = 0.000450582, Final residual = 6.13051e-06, No Iterations 2
smoothSolver:  Solving for Uz, Initial residual = 0.000672261, Final residual = 9.20952e-06, No Iterations 2
GAMG:  Solving for p, Initial residual = 0.00100775, Final residual = 9.4226e-05, No Iterations 1
time step continuity errors : sum local = 0.00779934, global = 0.000420014, cumulative = 28.4165
smoothSolver:  Solving for epsilon, Initial residual = 0.00067463, Final residual = 4.7577e-05, No Iterations 1
smoothSolver:  Solving for k, Initial residual = 0.00157903, Final residual = 1.73362e-05, No Iterations 2
ExecutionTime = 0.350936 s  ClockTime = 0 s

Time = 61s

smoothSolver:  Solving for Ux, Initial residual = 0.000361622, Final residual = 6.06926e-06, No Iterations 2
smoothSolver:  Solving for Uy, Initial residual = 0.000362474, Final residual = 4.95325e-06, No Iterations 2
smoothSolver:  Solving for Uz, Initial residual = 0.000520774, Final residual = 5.1985e-05, No Iterations 1
GAMG:  Solving for p, Initial residual = 0.000848054, Final residual = 1.91664e-05, No Iterations 2
time step continuity errors : sum local = 0.00158648, global = -0.000238901, cumulative = 28.4163
smoothSolver:  Solving for epsilon, Initial residual = 0.000553724, Final residual = 3.84711e-05, No Iterations 1
smoothSolver:  Solving for k, Initial residual = 0.00126644, Final residual = 1.33358e-05, No Iterations 2
ExecutionTime = 0.355506 s  ClockTime = 0 s

Time = 62s

smoothSolver:  Solving for Ux, Initial residual = 0.000374007, Final residual = 6.42774e-06, No Iterations 2
smoothSolver:  Solving for Uy, Initial residual = 0.000310213, Final residual = 4.37946e-06, No Iterations 2
smoothSolver:  Solving for Uz, Initial residual = 0.00046589, Final residual = 6.59626e-06, No Iterations 2
GAMG:  Solving for p, Initial residual = 0.000787987, Final residual = 7.82646e-05, No Iterations 1
time step continuity errors : sum local = 0.00647799, global = -0.00019238, cumulative = 28.4161
smoothSolver:  Solving for epsilon, Initial residual = 0.0004589, Final residual = 3.14814e-05, No Iterations 1
smoothSolver:  Solving for k, Initial residual = 0.00101988, Final residual = 0.000100642, No Iterations 1
ExecutionTime = 0.360232 s  ClockTime = 0 s

Time = 63s

smoothSolver:  Solving for Ux, Initial residual = 0.000289302, Final residual = 4.73027e-06, No Iterations 2
smoothSolver:  Solving for Uy, Initial residual = 0.000266559, Final residual = 3.54744e-06, No Iterations 2
smoothSolver:  Solving for Uz, Initial residual = 0.000395801, Final residual = 5.18162e-06, No Iterations 2
GAMG:  Solving for p, Initial residual = 0.000668609, Final residual = 6.42725e-05, No Iterations 1
time step continuity errors : sum local = 0.0053212, global = -0.000812113, cumulative = 28.4153
smoothSolver:  Solving for epsilon, Initial residual = 0.000362741, Final residual = 2.49175e-05, No Iterations 1
smoothSolver:  Solving for k, Initial residual = 0.000819028, Final residual = 7.95138e-05, No Iterations 1
ExecutionTime = 0.364083 s  ClockTime = 0 s

Time = 64s

smoothSolver:  Solving for Ux, Initial residual = 0.000261786, Final residual = 4.00953e-06, No Iterations 2
smoothSolver:  Solving for Uy, Initial residual = 0.000223144, Final residual = 2.88072e-06, No Iterations 2
smoothSolver:  Solving for Uz, Initial residual = 0.000325687, Final residual = 4.57481e-06, No Iterations 2
GAMG:  Solving for p, Initial residual = 0.000554183, Final residual = 5.04387e-05, No Iterations 1
time step continuity errors : sum local = 0.00417674, global = -0.000314293, cumulative = 28.415
smoothSolver:  Solving for epsilon, Initial residual = 0.000294845, Final residual = 2.03604e-05, No Iterations 1
smoothSolver:  Solving for k, Initial residual = 0.000665967, Final residual = 6.3949e-05, No Iterations 1
ExecutionTime = 0.368442 s  ClockTime = 0 s

Time = 65s

smoothSolver:  Solving for Ux, Initial residual = 0.000216595, Final residual = 3.1128e-06, No Iterations 2
smoothSolver:  Solving for Uy, Initial residual = 0.000191479, Final residual = 2.37387e-06, No Iterations 2
smoothSolver:  Solving for Uz, Initial residual = 0.000277166, Final residual = 3.89153e-06, No Iterations 2
GAMG:  Solving for p, Initial residual = 0.000486659, Final residual = 4.79315e-05, No Iterations 1
time step continuity errors : sum local = 0.00397037, global = -4.72521e-05, cumulative = 28.4149
smoothSolver:  Solving for epsilon, Initial residual = 0.000244901, Final residual = 1.70628e-05, No Iterations 1
smoothSolver:  Solving for k, Initial residual = 0.000543953, Final residual = 5.20564e-05, No Iterations 1
ExecutionTime = 0.373124 s  ClockTime = 0 s

Time = 66s

smoothSolver:  Solving for Ux, Initial residual = 0.000173394, Final residual = 2.53836e-06, No Iterations 2
smoothSolver:  Solving for Uy, Initial residual = 0.000163863, Final residual = 2.01292e-06, No Iterations 2
smoothSolver:  Solving for Uz, Initial residual = 0.000244673, Final residual = 3.37796e-06, No Iterations 2
GAMG:  Solving for p, Initial residual = 0.000425682, Final residual = 1.20861e-05, No Iterations 2
time step continuity errors : sum local = 0.00100117, global = -0.00018149, cumulative = 28.4147
smoothSolver:  Solving for epsilon, Initial residual = 0.000206537, Final residual = 1.44903e-05, No Iterations 1
smoothSolver:  Solving for k, Initial residual = 0.000451214, Final residual = 4.30021e-05, No Iterations 1
ExecutionTime = 0.378612 s  ClockTime = 0 s

Time = 67s

smoothSolver:  Solving for Ux, Initial residual = 0.000165054, Final residual = 2.49031e-06, No Iterations 2
smoothSolver:  Solving for Uy, Initial residual = 0.000139064, Final residual = 1.8175e-06, No Iterations 2
smoothSolver:  Solving for Uz, Initial residual = 0.00021354, Final residual = 3.03334e-06, No Iterations 2
GAMG:  Solving for p, Initial residual = 0.000364811, Final residual = 6.93248e-06, No Iterations 2
time step continuity errors : sum local = 0.000574265, global = -0.00010513, cumulative = 28.4146
smoothSolver:  Solving for epsilon, Initial residual = 0.000177117, Final residual = 1.26516e-05, No Iterations 1
smoothSolver:  Solving for k, Initial residual = 0.000378836, Final residual = 3.64184e-05, No Iterations 1
ExecutionTime = 0.382753 s  ClockTime = 0 s

Time = 68s

smoothSolver:  Solving for Ux, Initial residual = 0.000140851, Final residual = 2.06405e-06, No Iterations 2
smoothSolver:  Solving for Uy, Initial residual = 0.000118001, Final residual = 1.46636e-06, No Iterations 2
smoothSolver:  Solving for Uz, Initial residual = 0.00018417, Final residual = 2.74989e-06, No Iterations 2
GAMG:  Solving for p, Initial residual = 0.000322574, Final residual = 3.11125e-05, No Iterations 1
time step continuity errors : sum local = 0.00257748, global = 8.78532e-05, cumulative = 28.4147
smoothSolver:  Solving for epsilon, Initial residual = 0.000153321, Final residual = 1.13519e-05, No Iterations 1
smoothSolver:  Solving for k, Initial residual = 0.000322474, Final residual = 3.14452e-05, No Iterations 1
ExecutionTime = 0.386766 s  ClockTime = 0 s

Time = 69s

smoothSolver:  Solving for Ux, Initial residual = 0.000109916, Final residual = 1.59216e-06, No Iterations 2
smoothSolver:  Solving for Uy, Initial residual = 9.94556e-05, Final residual = 1.21583e-06, No Iterations 2
smoothSolver:  Solving for Uz, Initial residual = 0.000158098, Final residual = 2.31212e-06, No Iterations 2
GAMG:  Solving for p, Initial residual = 0.000269536, Final residual = 6.20944e-06, No Iterations 2
time step continuity errors : sum local = 0.000514443, global = -0.000103259, cumulative = 28.4146
smoothSolver:  Solving for epsilon, Initial residual = 0.000131763, Final residual = 1.01763e-05, No Iterations 1
smoothSolver:  Solving for k, Initial residual = 0.000273725, Final residual = 2.72991e-05, No Iterations 1
ExecutionTime = 0.391567 s  ClockTime = 0 s

Time = 70s

smoothSolver:  Solving for Ux, Initial residual = 0.000114466, Final residual = 1.50314e-06, No Iterations 2
smoothSolver:  Solving for Uy, Initial residual = 8.52145e-05, Final residual = 8.98365e-06, No Iterations 1
smoothSolver:  Solving for Uz, Initial residual = 0.000141212, Final residual = 2.08419e-06, No Iterations 2
GAMG:  Solving for p, Initial residual = 0.000234604, Final residual = 9.2152e-06, No Iterations 2
time step continuity errors : sum local = 0.000763485, global = -0.000207202, cumulative = 28.4144
smoothSolver:  Solving for epsilon, Initial residual = 0.000113699, Final residual = 9.06441e-06, No Iterations 1
smoothSolver:  Solving for k, Initial residual = 0.000234228, Final residual = 2.89037e-06, No Iterations 2
ExecutionTime = 0.396752 s  ClockTime = 0 s

Time = 71s

smoothSolver:  Solving for Ux, Initial residual = 9.27769e-05, Final residual = 9.87927e-06, No Iterations 1
smoothSolver:  Solving for Uy, Initial residual = 7.34374e-05, Final residual = 7.69457e-06, No Iterations 1
smoothSolver:  Solving for Uz, Initial residual = 0.00012079, Final residual = 1.72017e-06, No Iterations 2
GAMG:  Solving for p, Initial residual = 0.000209451, Final residual = 6.48942e-06, No Iterations 2
time step continuity errors : sum local = 0.000537641, global = -0.000195269, cumulative = 28.4142
smoothSolver:  Solving for epsilon, Initial residual = 0.00010337, Final residual = 8.4848e-06, No Iterations 1
smoothSolver:  Solving for k, Initial residual = 0.000200491, Final residual = 2.72416e-06, No Iterations 2
ExecutionTime = 0.40096 s  ClockTime = 0 s

Time = 72s

smoothSolver:  Solving for Ux, Initial residual = 7.42975e-05, Final residual = 7.91216e-06, No Iterations 1
smoothSolver:  Solving for Uy, Initial residual = 6.22491e-05, Final residual = 6.57919e-06, No Iterations 1
smoothSolver:  Solving for Uz, Initial residual = 0.00010445, Final residual = 1.52706e-06, No Iterations 2
GAMG:  Solving for p, Initial residual = 0.00016811, Final residual = 3.13238e-06, No Iterations 2
time step continuity errors : sum local = 0.000259528, global = -6.9609e-05, cumulative = 28.4141
smoothSolver:  Solving for epsilon, Initial residual = 9.33637e-05, Final residual = 7.91788e-06, No Iterations 1
smoothSolver:  Solving for k, Initial residual = 0.000174956, Final residual = 2.58424e-06, No Iterations 2
ExecutionTime = 0.405096 s  ClockTime = 0 s

Time = 73s

smoothSolver:  Solving for Ux, Initial residual = 6.54948e-05, Final residual = 7.11501e-06, No Iterations 1
smoothSolver:  Solving for Uy, Initial residual = 5.47885e-05, Final residual = 5.87183e-06, No Iterations 1
smoothSolver:  Solving for Uz, Initial residual = 9.28412e-05, Final residual = 1.35535e-06, No Iterations 2
GAMG:  Solving for p, Initial residual = 0.00016303, Final residual = 1.50672e-05, No Iterations 1
time step continuity errors : sum local = 0.00124844, global = 0.000138116, cumulative = 28.4143
smoothSolver:  Solving for epsilon, Initial residual = 8.49091e-05, Final residual = 7.31535e-06, No Iterations 1
smoothSolver:  Solving for k, Initial residual = 0.000154666, Final residual = 2.43137e-06, No Iterations 2
ExecutionTime = 0.409142 s  ClockTime = 0 s

Time = 74s

smoothSolver:  Solving for Ux, Initial residual = 5.19846e-05, Final residual = 6.04011e-06, No Iterations 1
smoothSolver:  Solving for Uy, Initial residual = 4.68233e-05, Final residual = 5.14367e-06, No Iterations 1
smoothSolver:  Solving for Uz, Initial residual = 7.94697e-05, Final residual = 9.03451e-06, No Iterations 1
GAMG:  Solving for p, Initial residual = 0.000128784, Final residual = 3.98984e-06, No Iterations 2
time step continuity errors : sum local = 0.000330594, global = 1.0043e-05, cumulative = 28.4143
smoothSolver:  Solving for epsilon, Initial residual = 7.46181e-05, Final residual = 6.65528e-06, No Iterations 1
smoothSolver:  Solving for k, Initial residual = 0.000135486, Final residual = 2.26281e-06, No Iterations 2
ExecutionTime = 0.414088 s  ClockTime = 0 s

Time = 75s

smoothSolver:  Solving for Ux, Initial residual = 5.62772e-05, Final residual = 6.34559e-06, No Iterations 1
smoothSolver:  Solving for Uy, Initial residual = 4.16794e-05, Final residual = 4.68531e-06, No Iterations 1
smoothSolver:  Solving for Uz, Initial residual = 7.35653e-05, Final residual = 8.99545e-06, No Iterations 1
GAMG:  Solving for p, Initial residual = 0.000105138, Final residual = 3.80779e-06, No Iterations 2
time step continuity errors : sum local = 0.000315473, global = -6.8596e-05, cumulative = 28.4142
smoothSolver:  Solving for epsilon, Initial residual = 6.70025e-05, Final residual = 6.09643e-06, No Iterations 1
smoothSolver:  Solving for k, Initial residual = 0.000121757, Final residual = 2.1063e-06, No Iterations 2
ExecutionTime = 0.418317 s  ClockTime = 0 s

Time = 76s

smoothSolver:  Solving for Ux, Initial residual = 4.29044e-05, Final residual = 4.75681e-06, No Iterations 1
smoothSolver:  Solving for Uy, Initial residual = 3.6337e-05, Final residual = 4.04206e-06, No Iterations 1
smoothSolver:  Solving for Uz, Initial residual = 6.24002e-05, Final residual = 7.33626e-06, No Iterations 1
GAMG:  Solving for p, Initial residual = 9.94573e-05, Final residual = 2.7989e-06, No Iterations 2
time step continuity errors : sum local = 0.000231898, global = -3.90531e-05, cumulative = 28.4142
smoothSolver:  Solving for epsilon, Initial residual = 5.98565e-05, Final residual = 5.50213e-06, No Iterations 1
smoothSolver:  Solving for k, Initial residual = 0.000109015, Final residual = 1.91713e-06, No Iterations 2
ExecutionTime = 0.422257 s  ClockTime = 0 s

Time = 77s

smoothSolver:  Solving for Ux, Initial residual = 3.71219e-05, Final residual = 4.24112e-06, No Iterations 1
smoothSolver:  Solving for Uy, Initial residual = 3.31189e-05, Final residual = 3.78581e-06, No Iterations 1
smoothSolver:  Solving for Uz, Initial residual = 5.6171e-05, Final residual = 6.56365e-06, No Iterations 1
GAMG:  Solving for p, Initial residual = 8.66589e-05, Final residual = 8.38826e-06, No Iterations 1
time step continuity errors : sum local = 0.000695011, global = 8.0706e-05, cumulative = 28.4143
smoothSolver:  Solving for epsilon, Initial residual = 5.40415e-05, Final residual = 4.93061e-06, No Iterations 1
smoothSolver:  Solving for k, Initial residual = 9.81385e-05, Final residual = 1.72634e-06, No Iterations 2
ExecutionTime = 0.426011 s  ClockTime = 0 s


SIMPLE solution converged in 77 iterations

End

